data_image0

_cell_length_a                        14.59330000
_cell_length_b                        14.59330000
_cell_length_c                        14.59330000
_cell_angle_alpha                    109.47100000
_cell_angle_beta                     109.47100000
_cell_angle_gamma                    109.47100000
_symmetry_space_group_name_H-M   P1      
_symmetry_Int_Tables_number      1       

loop_
_atom_site_type_symbol
_atom_site_label
_atom_site_fract_x
_atom_site_fract_y
_atom_site_fract_z
_atom_site_symmetry_multiplicity
_atom_site_occupancy
Zn            Zn1       0.75000000       0.25000000       0.50000000       1.00000000       1.00000000
Zn            Zn2       0.25000000       0.75000000       0.50000000       1.00000000       1.00000000
Zn            Zn3       0.50000000       0.75000000       0.25000000       1.00000000       1.00000000
Zn            Zn4       0.50000000       0.25000000       0.75000000       1.00000000       1.00000000
Zn            Zn5       0.25000000       0.50000000       0.75000000       1.00000000       1.00000000
Zn            Zn6       0.75000000       0.50000000       0.25000000       1.00000000       1.00000000
C              C1       0.00000000       0.38130000       0.62930000       1.00000000       1.00000000
C              C2       0.75200000       0.37070000       0.37070000       1.00000000       1.00000000
C              C3       0.24800000       0.61870000       0.61870000       1.00000000       1.00000000
C              C4       0.00000000       0.62930000       0.38130000       1.00000000       1.00000000
C              C5       0.62930000       0.00000000       0.38130000       1.00000000       1.00000000
C              C6       0.37070000       0.75200000       0.37070000       1.00000000       1.00000000
C              C7       0.61870000       0.24800000       0.61870000       1.00000000       1.00000000
C              C8       0.38130000       1.00000000       0.62930000       1.00000000       1.00000000
C              C9       0.38130000       0.62930000       0.00000000       1.00000000       1.00000000
C             C10       0.37070000       0.37070000       0.75200000       1.00000000       1.00000000
C             C11       0.61870000       0.61870000       0.24800000       1.00000000       1.00000000
C             C12       0.62930000       0.38130000       0.00000000       1.00000000       1.00000000
N              N1       0.90560000       0.28160000       0.55260000       1.00000000       1.00000000
N              N2       0.72900000       0.35300000       0.44740000       1.00000000       1.00000000
N              N3       0.27100000       0.71840000       0.62400000       1.00000000       1.00000000
N              N4       0.09440000       0.64700000       0.37600000       1.00000000       1.00000000
N              N5       0.55260000       0.90560000       0.28160000       1.00000000       1.00000000
N              N6       0.44740000       0.72900000       0.35300000       1.00000000       1.00000000
N              N7       0.62400000       0.27100000       0.71840000       1.00000000       1.00000000
N              N8       0.37600000       0.09440000       0.64700000       1.00000000       1.00000000
N              N9       0.28160000       0.55260000       0.90560000       1.00000000       1.00000000
N             N10       0.35300000       0.44740000       0.72900000       1.00000000       1.00000000
N             N11       0.71840000       0.62400000       0.27100000       1.00000000       1.00000000
N             N12       0.64700000       0.37600000       0.09440000       1.00000000       1.00000000
N             N13       0.28160000       0.90560000       0.55260000       1.00000000       1.00000000
N             N14       0.35300000       0.72900000       0.44740000       1.00000000       1.00000000
N             N15       0.71840000       0.27100000       0.62400000       1.00000000       1.00000000
N             N16       0.64700000       0.09440000       0.37600000       1.00000000       1.00000000
N             N17       0.90560000       0.55260000       0.28160000       1.00000000       1.00000000
N             N18       0.72900000       0.44740000       0.35300000       1.00000000       1.00000000
N             N19       0.27100000       0.62400000       0.71840000       1.00000000       1.00000000
N             N20       0.09440000       0.37600000       0.64700000       1.00000000       1.00000000
N             N21       0.55260000       0.28160000       0.90560000       1.00000000       1.00000000
N             N22       0.44740000       0.35300000       0.72900000       1.00000000       1.00000000
N             N23       0.62400000       0.71840000       0.27100000       1.00000000       1.00000000
N             N24       0.37600000       0.64700000       0.09440000       1.00000000       1.00000000
C             C13       0.94360000       0.20720000       0.51880000       1.00000000       1.00000000
C             C14       0.68840000       0.42480000       0.48120000       1.00000000       1.00000000
C             C15       0.31160000       0.79280000       0.73640000       1.00000000       1.00000000
C             C16       0.05640000       0.57520000       0.26360000       1.00000000       1.00000000
C             C17       0.51880000       0.94360000       0.20720000       1.00000000       1.00000000
C             C18       0.48120000       0.68840000       0.42480000       1.00000000       1.00000000
C             C19       0.73640000       0.31160000       0.79280000       1.00000000       1.00000000
C             C20       0.26360000       0.05640000       0.57520000       1.00000000       1.00000000
C             C21       0.20720000       0.51880000       0.94360000       1.00000000       1.00000000
C             C22       0.42480000       0.48120000       0.68840000       1.00000000       1.00000000
C             C23       0.79280000       0.73640000       0.31160000       1.00000000       1.00000000
C             C24       0.57520000       0.26360000       0.05640000       1.00000000       1.00000000
C             C25       0.20720000       0.94360000       0.51880000       1.00000000       1.00000000
C             C26       0.42480000       0.68840000       0.48120000       1.00000000       1.00000000
C             C27       0.79280000       0.31160000       0.73640000       1.00000000       1.00000000
C             C28       0.57520000       0.05640000       0.26360000       1.00000000       1.00000000
C             C29       0.94360000       0.51880000       0.20720000       1.00000000       1.00000000
C             C30       0.68840000       0.48120000       0.42480000       1.00000000       1.00000000
C             C31       0.31160000       0.73640000       0.79280000       1.00000000       1.00000000
C             C32       0.05640000       0.26360000       0.57520000       1.00000000       1.00000000
C             C33       0.51880000       0.20720000       0.94360000       1.00000000       1.00000000
C             C34       0.48120000       0.42480000       0.68840000       1.00000000       1.00000000
C             C35       0.73640000       0.79280000       0.31160000       1.00000000       1.00000000
C             C36       0.26360000       0.57520000       0.05640000       1.00000000       1.00000000
H              H1       0.89820000       0.13110000       0.46590000       1.00000000       1.00000000
H              H2       0.66520000       0.43230000       0.53410000       1.00000000       1.00000000
H              H3       0.33480000       0.86890000       0.76710000       1.00000000       1.00000000
H              H4       0.10180000       0.56770000       0.23290000       1.00000000       1.00000000
H              H5       0.46590000       0.89820000       0.13110000       1.00000000       1.00000000
H              H6       0.53410000       0.66520000       0.43230000       1.00000000       1.00000000
H              H7       0.76710000       0.33480000       0.86890000       1.00000000       1.00000000
H              H8       0.23290000       0.10180000       0.56770000       1.00000000       1.00000000
H              H9       0.13110000       0.46590000       0.89820000       1.00000000       1.00000000
H             H10       0.43230000       0.53410000       0.66520000       1.00000000       1.00000000
H             H11       0.86890000       0.76710000       0.33480000       1.00000000       1.00000000
H             H12       0.56770000       0.23290000       0.10180000       1.00000000       1.00000000
H             H13       0.13110000       0.89820000       0.46590000       1.00000000       1.00000000
H             H14       0.43230000       0.66520000       0.53410000       1.00000000       1.00000000
H             H15       0.86890000       0.33480000       0.76710000       1.00000000       1.00000000
H             H16       0.56770000       0.10180000       0.23290000       1.00000000       1.00000000
H             H17       0.89820000       0.46590000       0.13110000       1.00000000       1.00000000
H             H18       0.66520000       0.53410000       0.43230000       1.00000000       1.00000000
H             H19       0.33480000       0.76710000       0.86890000       1.00000000       1.00000000
H             H20       0.10180000       0.23290000       0.56770000       1.00000000       1.00000000
H             H21       0.46590000       0.13110000       0.89820000       1.00000000       1.00000000
H             H22       0.53410000       0.43230000       0.66520000       1.00000000       1.00000000
H             H23       0.76710000       0.86890000       0.33480000       1.00000000       1.00000000
H             H24       0.23290000       0.56770000       0.10180000       1.00000000       1.00000000
C             C37       0.00000000       0.48760000       0.68460000       1.00000000       1.00000000
C             C38       0.80300000       0.31540000       0.31540000       1.00000000       1.00000000
C             C39       0.19700000       0.51240000       0.51240000       1.00000000       1.00000000
C             C40      -0.00000000       0.68460000       0.48760000       1.00000000       1.00000000
C             C41       0.68460000      -0.00000000       0.48760000       1.00000000       1.00000000
C             C42       0.31540000       0.80300000       0.31540000       1.00000000       1.00000000
C             C43       0.51240000       0.19700000       0.51240000       1.00000000       1.00000000
C             C44       0.48760000      -0.00000000       0.68460000       1.00000000       1.00000000
C             C45       0.48760000       0.68460000       0.00000000       1.00000000       1.00000000
C             C46       0.31540000       0.31540000       0.80300000       1.00000000       1.00000000
C             C47       0.51240000       0.51240000       0.19700000       1.00000000       1.00000000
C             C48       0.68460000       0.48760000       0.00000000       1.00000000       1.00000000
H             H25       0.07580000       0.54770000       0.73750000       1.00000000       1.00000000
H             H26       0.81020000       0.33830000       0.26250000       1.00000000       1.00000000
H             H27       0.18980000       0.45230000       0.52810000       1.00000000       1.00000000
H             H28       0.92420000       0.66170000       0.47190000       1.00000000       1.00000000
H             H29       0.73750000       0.07580000       0.54770000       1.00000000       1.00000000
H             H30       0.26250000       0.81020000       0.33830000       1.00000000       1.00000000
H             H31       0.52810000       0.18980000       0.45230000       1.00000000       1.00000000
H             H32       0.47190000       0.92420000       0.66170000       1.00000000       1.00000000
H             H33       0.54770000       0.73750000       0.07580000       1.00000000       1.00000000
H             H34       0.33830000       0.26250000       0.81020000       1.00000000       1.00000000
H             H35       0.45230000       0.52810000       0.18980000       1.00000000       1.00000000
H             H36       0.66170000       0.47190000       0.92420000       1.00000000       1.00000000
H             H37       0.95840000       0.47900000       0.72300000       1.00000000       1.00000000
H             H38       0.75600000       0.23540000       0.27700000       1.00000000       1.00000000
H             H39       0.24400000       0.52100000       0.47940000       1.00000000       1.00000000
H             H40       0.04160000       0.76460000       0.52060000       1.00000000       1.00000000
H             H41       0.72300000       0.95840000       0.47900000       1.00000000       1.00000000
H             H42       0.27700000       0.75600000       0.23540000       1.00000000       1.00000000
H             H43       0.47940000       0.24400000       0.52100000       1.00000000       1.00000000
H             H44       0.52060000       0.04160000       0.76460000       1.00000000       1.00000000
H             H45       0.47900000       0.72300000       0.95840000       1.00000000       1.00000000
H             H46       0.23540000       0.27700000       0.75600000       1.00000000       1.00000000
H             H47       0.52100000       0.47940000       0.24400000       1.00000000       1.00000000
H             H48       0.76460000       0.52060000       0.04160000       1.00000000       1.00000000
H             H49       0.96580000       0.50480000       0.62880000       1.00000000       1.00000000
H             H50       0.87600000       0.33700000       0.37120000       1.00000000       1.00000000
H             H51       0.12400000       0.49520000       0.46100000       1.00000000       1.00000000
H             H52       0.03420000       0.66300000       0.53900000       1.00000000       1.00000000
H             H53       0.62880000       0.96580000       0.50480000       1.00000000       1.00000000
H             H54       0.37120000       0.87600000       0.33700000       1.00000000       1.00000000
H             H55       0.46100000       0.12400000       0.49520000       1.00000000       1.00000000
H             H56       0.53900000       0.03420000       0.66300000       1.00000000       1.00000000
H             H57       0.50480000       0.62880000       0.96580000       1.00000000       1.00000000
H             H58       0.33700000       0.37120000       0.87600000       1.00000000       1.00000000
H             H59       0.49520000       0.46100000       0.12400000       1.00000000       1.00000000
H             H60       0.66300000       0.53900000       0.03420000       1.00000000       1.00000000

